* Load-Resistor with fixed current
I1_P{id} N{VDC} N{GND} P{nominal_current}
S1_P{id} N{VDC} N{GND} N{GND} N{VDC} current_load_diosw
.model current_load_diosw sw vt=0 vh=0.001 ron=0.001 roff=10e9
