* Current limited power source
I1_P{id} N003_P{id} N002_P{id} P{nominal_current}
V1_P{id} N001_P{id} N002_P{id} P{nominal_voltage}
I2_P{id} N003_P{id} N{GND} P{nominal_current}
S4_P{id} N{VDC} N001_P{id} N001_P{id} N{VDC} source_diosw
S5_P{id} N003_P{id} N002_P{id} N002_P{id} N003_P{id} source_diosw
S6_P{id} N003_P{id} N{GND} N{GND} N003_P{id} source_diosw
.model source_diosw sw vt=0 vh=0.001 ron=0.001 roff=10e9