* Voltage source with limited current
I1P{id} N003 N002 P{nominal_current}
V1P{id} N001 N002 P{nominal_voltage}
I2P{id} N003 N{GND} P{nominal_current}
S4P{id} N{VDC} N001 N001 N{VDC} diosw
S5P{id} N003 N002 N002 N003 diosw
S6P{id} N003 N{GND} N{GND} N003 source_diosw
.model source_diosw sw vt=0 vh=0.001 ron=0.001 roff=10e9
