* Load-Resistor with fixed current
I1P{id} N{NET1} N{NET2} P{nominal_current}
S1P{id} N{NET1} N{NET2} N{NET2} N{NET1} current_load_diosw
.model current_load_diosw sw vt=0 vh=0.001 ron=0.001 roff=10e9
