Version 4
SHEET 1 880 680
WIRE 80 112 32 112
WIRE 224 112 144 112
WIRE 32 144 32 112
WIRE 224 144 224 112
WIRE 32 256 32 224
WIRE 224 256 224 224
WIRE 224 256 32 256
FLAG 32 256 0
SYMBOL voltage 32 128 R0
WINDOW 123 0 0 Left 0
WINDOW 39 0 0 Left 0
SYMATTR InstName V1
SYMATTR Value 230
SYMBOL res 208 128 R0
SYMATTR InstName R1
SYMATTR Value 40
SYMBOL diode 80 128 R270
WINDOW 0 32 32 VTop 2
WINDOW 3 0 32 VBottom 2
SYMATTR InstName D1
SYMATTR Value cl
TEXT -2 280 Left 2 !.op
TEXT 264 40 Left 2 !.model cl D(Ron=1u Vfwd=0 Roff=1G ilimit=5)
