Version 4
SHEET 1 1272 680
WIRE -80 -64 -464 -64
WIRE 256 -64 -80 -64
WIRE 624 -64 256 -64
WIRE -464 -48 -464 -64
WIRE -464 -48 -512 -48
WIRE -80 -48 -80 -64
WIRE -80 -48 -128 -48
WIRE 256 -48 256 -64
WIRE 256 -48 208 -48
WIRE -512 -32 -512 -48
WIRE -128 -32 -128 -48
WIRE 208 -32 208 -48
WIRE -512 32 -512 16
WIRE -464 32 -512 32
WIRE -128 32 -128 16
WIRE -80 32 -128 32
WIRE 208 32 208 16
WIRE 256 32 208 32
WIRE -464 80 -464 32
WIRE -80 80 -80 32
WIRE 256 80 256 32
WIRE 624 80 624 48
WIRE -464 176 -464 160
WIRE -336 176 -464 176
WIRE -80 176 -80 160
WIRE 48 176 -80 176
WIRE 256 176 256 160
WIRE 384 176 256 176
WIRE -464 192 -464 176
WIRE -336 192 -336 176
WIRE -288 192 -336 192
WIRE -80 192 -80 176
WIRE 48 192 48 176
WIRE 96 192 48 192
WIRE 256 192 256 176
WIRE 384 192 384 176
WIRE 432 192 384 192
WIRE -288 208 -288 192
WIRE 96 208 96 192
WIRE 432 208 432 192
WIRE -288 272 -288 256
WIRE -288 272 -336 272
WIRE 96 272 96 256
WIRE 96 272 48 272
WIRE 432 272 432 256
WIRE 432 272 384 272
WIRE -464 288 -464 272
WIRE -464 288 -560 288
WIRE -336 288 -336 272
WIRE -336 288 -464 288
WIRE -80 288 -80 272
WIRE -80 288 -176 288
WIRE 48 288 48 272
WIRE 48 288 -80 288
WIRE 256 288 256 272
WIRE 256 288 160 288
WIRE 384 288 384 272
WIRE 384 288 256 288
WIRE -560 304 -560 288
WIRE -560 304 -608 304
WIRE -464 304 -464 288
WIRE -176 304 -176 288
WIRE -176 304 -224 304
WIRE -80 304 -80 288
WIRE 160 304 160 288
WIRE 160 304 112 304
WIRE 256 304 256 288
WIRE -608 320 -608 304
WIRE -224 320 -224 304
WIRE 112 320 112 304
WIRE -608 384 -608 368
WIRE -560 384 -608 384
WIRE -224 384 -224 368
WIRE -176 384 -224 384
WIRE 112 384 112 368
WIRE 160 384 112 384
WIRE -560 400 -560 384
WIRE -464 400 -464 384
WIRE -464 400 -560 400
WIRE -176 400 -176 384
WIRE -80 400 -80 384
WIRE -80 400 -176 400
WIRE 160 400 160 384
WIRE 256 400 256 384
WIRE 256 400 160 400
WIRE -464 416 -464 400
WIRE -80 416 -80 400
WIRE 256 416 256 400
FLAG 256 416 0
FLAG 624 80 0
FLAG -80 416 0
FLAG 624 -64 VDC
FLAG -464 416 0
DATAFLAG 384 -64 ""
SYMBOL current 256 272 R180
WINDOW 0 24 80 Left 2
WINDOW 3 24 0 Left 2
WINDOW 123 0 0 Left 0
WINDOW 39 0 0 Left 0
SYMATTR InstName I11-s
SYMATTR Value 9
SYMBOL voltage 256 64 R0
WINDOW 123 0 0 Left 0
WINDOW 39 0 0 Left 0
SYMATTR InstName V11-s
SYMATTR Value 230
SYMBOL current 256 304 R0
WINDOW 123 0 0 Left 0
WINDOW 39 0 0 Left 0
SYMATTR InstName I21-s
SYMATTR Value 9
SYMBOL sw 256 -64 R0
SYMATTR InstName S1
SYMATTR Value diosw
SYMBOL sw 384 288 R180
SYMATTR InstName S2
SYMATTR Value diosw
SYMBOL sw 160 288 R0
SYMATTR InstName S3
SYMATTR Value diosw
SYMBOL current -80 272 R180
WINDOW 0 24 80 Left 2
WINDOW 3 24 0 Left 2
WINDOW 123 0 0 Left 0
WINDOW 39 0 0 Left 0
SYMATTR InstName I1
SYMATTR Value 9
SYMBOL voltage -80 64 R0
WINDOW 123 0 0 Left 0
WINDOW 39 0 0 Left 0
SYMATTR InstName V1
SYMATTR Value 230
SYMBOL current -80 304 R0
WINDOW 123 0 0 Left 0
WINDOW 39 0 0 Left 0
SYMATTR InstName I2
SYMATTR Value 9
SYMBOL sw -80 -64 R0
SYMATTR InstName S4
SYMATTR Value diosw
SYMBOL sw 48 288 R180
SYMATTR InstName S5
SYMATTR Value diosw
SYMBOL sw -176 288 R0
SYMATTR InstName S6
SYMATTR Value diosw
SYMBOL current -464 272 R180
WINDOW 0 24 80 Left 2
WINDOW 3 24 0 Left 2
WINDOW 123 0 0 Left 0
WINDOW 39 0 0 Left 0
SYMATTR InstName I3
SYMATTR Value 9
SYMBOL voltage -464 64 R0
WINDOW 123 0 0 Left 0
WINDOW 39 0 0 Left 0
SYMATTR InstName V2
SYMATTR Value 230
SYMBOL current -464 304 R0
WINDOW 123 0 0 Left 0
WINDOW 39 0 0 Left 0
SYMATTR InstName I4
SYMATTR Value 9
SYMBOL sw -464 -64 R0
SYMATTR InstName S7
SYMATTR Value diosw
SYMBOL sw -336 288 R180
SYMATTR InstName S8
SYMATTR Value diosw
SYMBOL sw -560 288 R0
SYMATTR InstName S9
SYMATTR Value diosw
SYMBOL bv 624 -48 R0
SYMATTR InstName B1
SYMATTR Value P=1000
TEXT 568 328 Left 2 !.tran 10
TEXT 568 352 Left 2 !.model diosw sw vt=0 vh=0.001 ron=0.001 roff=10e9
TEXT 568 376 Left 2 ;LT -> .model D D(Ron=0 Roff=1G Vfwd=0 Vrev=1G)
